[General]
network = ffpb_network
tkenv-plugin-path = ../../../etc/plugins
# seed-0-mt = 5
sim-time-limit = 110s
print-undisposed=false
# num-rngs = 2
warmup-period = 50s
debug-on-errors = true
#cmdenv-express-mode = true
record-eventlog=false
**.mobility.initFromDisplayString = false
*.ap*.mobility.initFromDisplayString = false
*.gw*.mobility.initFromDisplayString = false
**.mobility.typename = "LinearMobility"
**.mobilityType = "LinearMobility"
**.constraintAreaMinX=0m
**.constraintAreaMinY=0m
**.constraintAreaMinZ=0m
**.constraintAreaMaxX = 10014m
**.constraintAreaMaxY = 10014m
**.constraintAreaMaxZ=0m

**.cluster = true
**.gwTermination = false
*.ap*.nodeMaxStarttime = 3
*.gw*.nodeMaxStarttime = 3
*.ap*.**.vector-recording = false
*.gw*.**.vector-recording = false
*.newNode*.**.vector-recording = false
*.sourceNode[*].**.vector-recording = false
*.statisticsCollector.vector-recording = true


*.gw0.mac = "c0:ff:ee:ba:be:01"
*.gw0.numClients = 1
*.gw0.nodenr = "gw_0"
*.gw0.GWClass_download_speed = 40960kbps
*.gw0.GWClass_upload_speed = 40960kbps
*.gw0.**.GWClass_download_speed = 40960kbps
*.gw0.**.GWClass_upload_speed = 40960kbps
*.gw0.**.mac = "c0:ff:ee:ba:be:01"
*.gw0.eth[*].mac.address = "c0:ff:ee:ba:be:01"
*.gw0.**.numClients = 1
*.gw0.meshId= 0
*.gw0.**.nodenr = "gw_0"
*.gw0.wifiOnly = false
*.gw0.**.wifiOnly = false

*.gw1.mac = "c0:ff:ee:ba:be:02"
*.gw1.numClients = 1
*.gw1.nodenr = "gw_1"
*.gw1.GWClass_download_speed = 40960kbps
*.gw1.GWClass_upload_speed = 40960kbps
*.gw1.**.GWClass_download_speed = 40960kbps
*.gw1.**.GWClass_upload_speed = 40960kbps
*.gw1.**.mac = "c0:ff:ee:ba:be:02"
*.gw1.eth[*].mac.address = "c0:ff:ee:ba:be:02"
*.gw1.**.numClients = 1
*.gw1.meshId= 0
*.gw1.**.nodenr = "gw_1"
*.gw1.wifiOnly = false
*.gw1.**.wifiOnly = false

*.gw2.mac = "c0:ff:ee:ba:be:48"
*.gw2.numClients = 1
*.gw2.nodenr = "gw_2"
*.gw2.GWClass_download_speed = 40960kbps
*.gw2.GWClass_upload_speed = 40960kbps
*.gw2.**.GWClass_download_speed = 40960kbps
*.gw2.**.GWClass_upload_speed = 40960kbps
*.gw2.**.mac = "c0:ff:ee:ba:be:48"
*.gw2.eth[*].mac.address = "c0:ff:ee:ba:be:48"
*.gw2.**.numClients = 1
*.gw2.meshId= 1
*.gw2.**.nodenr = "gw_2"
*.gw2.wifiOnly = false
*.gw2.**.wifiOnly = false

*.gw3.mac = "c0:ff:ee:ba:be:05"
*.gw3.numClients = 1
*.gw3.nodenr = "gw_3"
*.gw3.GWClass_download_speed = 40960kbps
*.gw3.GWClass_upload_speed = 40960kbps
*.gw3.**.GWClass_download_speed = 40960kbps
*.gw3.**.GWClass_upload_speed = 40960kbps
*.gw3.**.mac = "c0:ff:ee:ba:be:05"
*.gw3.eth[*].mac.address = "c0:ff:ee:ba:be:05"
*.gw3.**.numClients = 1
*.gw3.meshId= 1
*.gw3.**.nodenr = "gw_3"
*.gw3.wifiOnly = false
*.gw3.**.wifiOnly = false

*.gw4.mac = "c0:ff:ee:ba:be:04"
*.gw4.numClients = 1
*.gw4.nodenr = "gw_4"
*.gw4.GWClass_download_speed = 40960kbps
*.gw4.GWClass_upload_speed = 40960kbps
*.gw4.**.GWClass_download_speed = 40960kbps
*.gw4.**.GWClass_upload_speed = 40960kbps
*.gw4.**.mac = "c0:ff:ee:ba:be:04"
*.gw4.eth[*].mac.address = "c0:ff:ee:ba:be:04"
*.gw4.**.numClients = 1
*.gw4.meshId= 2
*.gw4.**.nodenr = "gw_4"
*.gw4.wifiOnly = false
*.gw4.**.wifiOnly = false

*.gw5.mac = "c0:ff:ee:ba:be:a7"
*.gw5.numClients = 1
*.gw5.nodenr = "gw_5"
*.gw5.GWClass_download_speed = 40960kbps
*.gw5.GWClass_upload_speed = 40960kbps
*.gw5.**.GWClass_download_speed = 40960kbps
*.gw5.**.GWClass_upload_speed = 40960kbps
*.gw5.**.mac = "c0:ff:ee:ba:be:a7"
*.gw5.eth[*].mac.address = "c0:ff:ee:ba:be:a7"
*.gw5.**.numClients = 1
*.gw5.meshId= 2
*.gw5.**.nodenr = "gw_5"
*.gw5.wifiOnly = false
*.gw5.**.wifiOnly = false

*.gw6.mac = "c0:ff:ee:ba:be:63"
*.gw6.numClients = 1
*.gw6.nodenr = "gw_6"
*.gw6.GWClass_download_speed = 40960kbps
*.gw6.GWClass_upload_speed = 40960kbps
*.gw6.**.GWClass_download_speed = 40960kbps
*.gw6.**.GWClass_upload_speed = 40960kbps
*.gw6.**.mac = "c0:ff:ee:ba:be:63"
*.gw6.eth[*].mac.address = "c0:ff:ee:ba:be:63"
*.gw6.**.numClients = 1
*.gw6.meshId= 3
*.gw6.**.nodenr = "gw_6"
*.gw6.wifiOnly = false
*.gw6.**.wifiOnly = false

*.gw7.mac = "c0:ff:ee:ba:be:06"
*.gw7.numClients = 1
*.gw7.nodenr = "gw_7"
*.gw7.GWClass_download_speed = 40960kbps
*.gw7.GWClass_upload_speed = 40960kbps
*.gw7.**.GWClass_download_speed = 40960kbps
*.gw7.**.GWClass_upload_speed = 40960kbps
*.gw7.**.mac = "c0:ff:ee:ba:be:06"
*.gw7.eth[*].mac.address = "c0:ff:ee:ba:be:06"
*.gw7.**.numClients = 1
*.gw7.meshId= 3
*.gw7.**.nodenr = "gw_7"
*.gw7.wifiOnly = false
*.gw7.**.wifiOnly = false

*.ap0.nodenr = "0"
*.ap0.**.nodenr = "0"
*.ap0.mac = "c0:4a:00:42:2e:e4"
*.ap0.**.mac = "c0:4a:00:42:2e:e4"
*.ap0.wlan0.mac.address = "c0:4a:00:42:2e:e4"
*.ap0.numClients = 1
*.ap0.**.numClients = 1
*.ap0.eth[*].mac.address = "c0:4a:00:42:2e:e4"
*.ap0.meshId= 1
*.ap0.wifiOnly = false
*.ap0.**.wifiOnly = false
*.ap0.mobility.initialX = 2629m
*.ap0.mobility.initialY = 337m


*.ap0_0.nodenr = "0_0"
*.ap0_0.**.nodenr = "0_0"
*.ap0_0.mac = "10:fe:ed:57:f6:a6"
*.ap0_0.**.mac = "10:fe:ed:57:f6:a6"
*.ap0_0.wlan0.mac.address = "10:fe:ed:57:f6:a6"
*.ap0_0.numClients = 1
*.ap0_0.**.numClients = 1
*.ap0_0.eth[*].mac.address = "10:fe:ed:57:f6:a6"
*.ap0_0.meshId= 1
*.ap0_0.wifiOnly = false
*.ap0_0.**.wifiOnly = false
*.ap0_0.mobility.initialX = 2634m
*.ap0_0.mobility.initialY = 342m


*.ap1.nodenr = "1"
*.ap1.**.nodenr = "1"
*.ap1.mac = "10:fe:ed:7d:a2:44"
*.ap1.**.mac = "10:fe:ed:7d:a2:44"
*.ap1.wlan0.mac.address = "10:fe:ed:7d:a2:44"
*.ap1.numClients = 1
*.ap1.**.numClients = 1
*.ap1.eth[*].mac.address = "10:fe:ed:7d:a2:44"
*.ap1.meshId= 3
*.ap1.wifiOnly = false
*.ap1.**.wifiOnly = false
*.ap1.mobility.initialX = 2136m
*.ap1.mobility.initialY = 2165m


*.ap1_1.nodenr = "1_1"
*.ap1_1.**.nodenr = "1_1"
*.ap1_1.mac = "c0:4a:00:a0:43:ec"
*.ap1_1.**.mac = "c0:4a:00:a0:43:ec"
*.ap1_1.wlan0.mac.address = "c0:4a:00:a0:43:ec"
*.ap1_1.numClients = 1
*.ap1_1.**.numClients = 1
*.ap1_1.eth[*].mac.address = "c0:4a:00:a0:43:ec"
*.ap1_1.meshId= 3
*.ap1_1.wifiOnly = true
*.ap1_1.**.wifiOnly = true
*.ap1_1.mobility.initialX = 2141m
*.ap1_1.mobility.initialY = 2170m


*.ap2.nodenr = "2"
*.ap2.**.nodenr = "2"
*.ap2.mac = "f8:1a:67:f9:94:a4"
*.ap2.**.mac = "f8:1a:67:f9:94:a4"
*.ap2.wlan0.mac.address = "f8:1a:67:f9:94:a4"
*.ap2.numClients = 1
*.ap2.**.numClients = 1
*.ap2.eth[*].mac.address = "f8:1a:67:f9:94:a4"
*.ap2.meshId= 2
*.ap2.wifiOnly = false
*.ap2.**.wifiOnly = false
*.ap2.mobility.initialX = 562m
*.ap2.mobility.initialY = 1369m


*.ap3.nodenr = "3"
*.ap3.**.nodenr = "3"
*.ap3.mac = "c4:6e:1f:b6:53:40"
*.ap3.**.mac = "c4:6e:1f:b6:53:40"
*.ap3.wlan0.mac.address = "c4:6e:1f:b6:53:40"
*.ap3.numClients = 1
*.ap3.**.numClients = 1
*.ap3.eth[*].mac.address = "c4:6e:1f:b6:53:40"
*.ap3.meshId= 0
*.ap3.wifiOnly = false
*.ap3.**.wifiOnly = false
*.ap3.mobility.initialX = 8570m
*.ap3.mobility.initialY = 726m


*.ap4.nodenr = "4"
*.ap4.**.nodenr = "4"
*.ap4.mac = "c4:6e:1f:a2:66:3c"
*.ap4.**.mac = "c4:6e:1f:a2:66:3c"
*.ap4.wlan0.mac.address = "c4:6e:1f:a2:66:3c"
*.ap4.numClients = 1
*.ap4.**.numClients = 1
*.ap4.eth[*].mac.address = "c4:6e:1f:a2:66:3c"
*.ap4.meshId= 3
*.ap4.wifiOnly = false
*.ap4.**.wifiOnly = false
*.ap4.mobility.initialX = 729m
*.ap4.mobility.initialY = 9160m


*.ap5.nodenr = "5"
*.ap5.**.nodenr = "5"
*.ap5.mac = "10:fe:ed:f4:ff:36"
*.ap5.**.mac = "10:fe:ed:f4:ff:36"
*.ap5.wlan0.mac.address = "10:fe:ed:f4:ff:36"
*.ap5.numClients = 1
*.ap5.**.numClients = 1
*.ap5.eth[*].mac.address = "10:fe:ed:f4:ff:36"
*.ap5.meshId= 0
*.ap5.wifiOnly = false
*.ap5.**.wifiOnly = false
*.ap5.mobility.initialX = 9021m
*.ap5.mobility.initialY = 9885m


*.ap5_0.nodenr = "5_0"
*.ap5_0.**.nodenr = "5_0"
*.ap5_0.mac = "e8:94:f6:6c:f7:f0"
*.ap5_0.**.mac = "e8:94:f6:6c:f7:f0"
*.ap5_0.wlan0.mac.address = "e8:94:f6:6c:f7:f0"
*.ap5_0.numClients = 1
*.ap5_0.**.numClients = 1
*.ap5_0.eth[*].mac.address = "e8:94:f6:6c:f7:f0"
*.ap5_0.meshId= 0
*.ap5_0.wifiOnly = true
*.ap5_0.**.wifiOnly = true
*.ap5_0.mobility.initialX = 9026m
*.ap5_0.mobility.initialY = 9890m


*.ap5_1.nodenr = "5_1"
*.ap5_1.**.nodenr = "5_1"
*.ap5_1.mac = "e8:94:f6:f9:cb:f6"
*.ap5_1.**.mac = "e8:94:f6:f9:cb:f6"
*.ap5_1.wlan0.mac.address = "e8:94:f6:f9:cb:f6"
*.ap5_1.numClients = 1
*.ap5_1.**.numClients = 1
*.ap5_1.eth[*].mac.address = "e8:94:f6:f9:cb:f6"
*.ap5_1.meshId= 0
*.ap5_1.wifiOnly = false
*.ap5_1.**.wifiOnly = false
*.ap5_1.mobility.initialX = 9031m
*.ap5_1.mobility.initialY = 9895m


*.ap6.nodenr = "6"
*.ap6.**.nodenr = "6"
*.ap6.mac = "c0:4a:00:05:f5:94"
*.ap6.**.mac = "c0:4a:00:05:f5:94"
*.ap6.wlan0.mac.address = "c0:4a:00:05:f5:94"
*.ap6.numClients = 1
*.ap6.**.numClients = 1
*.ap6.eth[*].mac.address = "c0:4a:00:05:f5:94"
*.ap6.meshId= 1
*.ap6.wifiOnly = false
*.ap6.**.wifiOnly = false
*.ap6.mobility.initialX = 4431m
*.ap6.mobility.initialY = 3696m


*.ap6_0.nodenr = "6_0"
*.ap6_0.**.nodenr = "6_0"
*.ap6_0.mac = "e8:94:f6:6a:a1:f8"
*.ap6_0.**.mac = "e8:94:f6:6a:a1:f8"
*.ap6_0.wlan0.mac.address = "e8:94:f6:6a:a1:f8"
*.ap6_0.numClients = 1
*.ap6_0.**.numClients = 1
*.ap6_0.eth[*].mac.address = "e8:94:f6:6a:a1:f8"
*.ap6_0.meshId= 1
*.ap6_0.wifiOnly = false
*.ap6_0.**.wifiOnly = false
*.ap6_0.mobility.initialX = 4436m
*.ap6_0.mobility.initialY = 3701m


*.ap7.nodenr = "7"
*.ap7.**.nodenr = "7"
*.ap7.mac = "e8:94:f6:3f:32:ac"
*.ap7.**.mac = "e8:94:f6:3f:32:ac"
*.ap7.wlan0.mac.address = "e8:94:f6:3f:32:ac"
*.ap7.numClients = 1
*.ap7.**.numClients = 1
*.ap7.eth[*].mac.address = "e8:94:f6:3f:32:ac"
*.ap7.meshId= 3
*.ap7.wifiOnly = false
*.ap7.**.wifiOnly = false
*.ap7.mobility.initialX = 7976m
*.ap7.mobility.initialY = 4466m


*.ap8.nodenr = "8"
*.ap8.**.nodenr = "8"
*.ap8.mac = "10:fe:ed:f4:e7:b6"
*.ap8.**.mac = "10:fe:ed:f4:e7:b6"
*.ap8.wlan0.mac.address = "10:fe:ed:f4:e7:b6"
*.ap8.numClients = 1
*.ap8.**.numClients = 1
*.ap8.eth[*].mac.address = "10:fe:ed:f4:e7:b6"
*.ap8.meshId= 1
*.ap8.wifiOnly = false
*.ap8.**.wifiOnly = false
*.ap8.mobility.initialX = 9788m
*.ap8.mobility.initialY = 9160m


*.ap9.nodenr = "9"
*.ap9.**.nodenr = "9"
*.ap9.mac = "c4:6e:1f:97:85:42"
*.ap9.**.mac = "c4:6e:1f:97:85:42"
*.ap9.wlan0.mac.address = "c4:6e:1f:97:85:42"
*.ap9.numClients = 1
*.ap9.**.numClients = 1
*.ap9.eth[*].mac.address = "c4:6e:1f:97:85:42"
*.ap9.meshId= 0
*.ap9.wifiOnly = false
*.ap9.**.wifiOnly = false
*.ap9.mobility.initialX = 7156m
*.ap9.mobility.initialY = 240m


*.ap9_0.nodenr = "9_0"
*.ap9_0.**.nodenr = "9_0"
*.ap9_0.mac = "c4:6e:1f:97:85:ce"
*.ap9_0.**.mac = "c4:6e:1f:97:85:ce"
*.ap9_0.wlan0.mac.address = "c4:6e:1f:97:85:ce"
*.ap9_0.numClients = 1
*.ap9_0.**.numClients = 1
*.ap9_0.eth[*].mac.address = "c4:6e:1f:97:85:ce"
*.ap9_0.meshId= 0
*.ap9_0.wifiOnly = false
*.ap9_0.**.wifiOnly = false
*.ap9_0.mobility.initialX = 7161m
*.ap9_0.mobility.initialY = 245m


*.ap9_3.nodenr = "9_3"
*.ap9_3.**.nodenr = "9_3"
*.ap9_3.mac = "e8:94:f6:50:d7:b2"
*.ap9_3.**.mac = "e8:94:f6:50:d7:b2"
*.ap9_3.wlan0.mac.address = "e8:94:f6:50:d7:b2"
*.ap9_3.numClients = 1
*.ap9_3.**.numClients = 1
*.ap9_3.eth[*].mac.address = "e8:94:f6:50:d7:b2"
*.ap9_3.meshId= 0
*.ap9_3.wifiOnly = true
*.ap9_3.**.wifiOnly = true
*.ap9_3.mobility.initialX = 7166m
*.ap9_3.mobility.initialY = 250m


*.ap10.nodenr = "10"
*.ap10.**.nodenr = "10"
*.ap10.mac = "c0:4a:00:a0:43:4c"
*.ap10.**.mac = "c0:4a:00:a0:43:4c"
*.ap10.wlan0.mac.address = "c0:4a:00:a0:43:4c"
*.ap10.numClients = 1
*.ap10.**.numClients = 1
*.ap10.eth[*].mac.address = "c0:4a:00:a0:43:4c"
*.ap10.meshId= 1
*.ap10.wifiOnly = false
*.ap10.**.wifiOnly = false
*.ap10.mobility.initialX = 2130m
*.ap10.mobility.initialY = 2471m


*.ap11.nodenr = "11"
*.ap11.**.nodenr = "11"
*.ap11.mac = "64:70:02:e8:25:3e"
*.ap11.**.mac = "64:70:02:e8:25:3e"
*.ap11.wlan0.mac.address = "64:70:02:e8:25:3e"
*.ap11.numClients = 1
*.ap11.**.numClients = 1
*.ap11.eth[*].mac.address = "64:70:02:e8:25:3e"
*.ap11.meshId= 12
*.ap11.wifiOnly = false
*.ap11.**.wifiOnly = false
*.ap11.mobility.initialX = 7689m
*.ap11.mobility.initialY = 609m


*.ap11_1.nodenr = "11_1"
*.ap11_1.**.nodenr = "11_1"
*.ap11_1.mac = "c0:4a:00:8a:e7:d6"
*.ap11_1.**.mac = "c0:4a:00:8a:e7:d6"
*.ap11_1.wlan0.mac.address = "c0:4a:00:8a:e7:d6"
*.ap11_1.numClients = 1
*.ap11_1.**.numClients = 1
*.ap11_1.eth[*].mac.address = "c0:4a:00:8a:e7:d6"
*.ap11_1.meshId= 12
*.ap11_1.wifiOnly = true
*.ap11_1.**.wifiOnly = true
*.ap11_1.mobility.initialX = 7694m
*.ap11_1.mobility.initialY = 614m


*.ap12.nodenr = "12"
*.ap12.**.nodenr = "12"
*.ap12.mac = "e8:94:f6:b5:c4:dc"
*.ap12.**.mac = "e8:94:f6:b5:c4:dc"
*.ap12.wlan0.mac.address = "e8:94:f6:b5:c4:dc"
*.ap12.numClients = 1
*.ap12.**.numClients = 1
*.ap12.eth[*].mac.address = "e8:94:f6:b5:c4:dc"
*.ap12.meshId= 13
*.ap12.wifiOnly = false
*.ap12.**.wifiOnly = false
*.ap12.mobility.initialX = 5429m
*.ap12.mobility.initialY = 2355m


*.ap13.nodenr = "13"
*.ap13.**.nodenr = "13"
*.ap13.mac = "e8:94:f6:2c:1c:b4"
*.ap13.**.mac = "e8:94:f6:2c:1c:b4"
*.ap13.wlan0.mac.address = "e8:94:f6:2c:1c:b4"
*.ap13.numClients = 1
*.ap13.**.numClients = 1
*.ap13.eth[*].mac.address = "e8:94:f6:2c:1c:b4"
*.ap13.meshId= 14
*.ap13.wifiOnly = false
*.ap13.**.wifiOnly = false
*.ap13.mobility.initialX = 8853m
*.ap13.mobility.initialY = 8577m


*.ap14.nodenr = "14"
*.ap14.**.nodenr = "14"
*.ap14.mac = "e8:94:f6:f9:cc:ac"
*.ap14.**.mac = "e8:94:f6:f9:cc:ac"
*.ap14.wlan0.mac.address = "e8:94:f6:f9:cc:ac"
*.ap14.numClients = 1
*.ap14.**.numClients = 1
*.ap14.eth[*].mac.address = "e8:94:f6:f9:cc:ac"
*.ap14.meshId= 15
*.ap14.wifiOnly = false
*.ap14.**.wifiOnly = false
*.ap14.mobility.initialX = 6457m
*.ap14.mobility.initialY = 5073m


*.ap14_0.nodenr = "14_0"
*.ap14_0.**.nodenr = "14_0"
*.ap14_0.mac = "e8:94:f6:62:93:10"
*.ap14_0.**.mac = "e8:94:f6:62:93:10"
*.ap14_0.wlan0.mac.address = "e8:94:f6:62:93:10"
*.ap14_0.numClients = 1
*.ap14_0.**.numClients = 1
*.ap14_0.eth[*].mac.address = "e8:94:f6:62:93:10"
*.ap14_0.meshId= 15
*.ap14_0.wifiOnly = true
*.ap14_0.**.wifiOnly = true
*.ap14_0.mobility.initialX = 6462m
*.ap14_0.mobility.initialY = 5078m


*.ap14_1.nodenr = "14_1"
*.ap14_1.**.nodenr = "14_1"
*.ap14_1.mac = "e8:94:f6:62:84:16"
*.ap14_1.**.mac = "e8:94:f6:62:84:16"
*.ap14_1.wlan0.mac.address = "e8:94:f6:62:84:16"
*.ap14_1.numClients = 1
*.ap14_1.**.numClients = 1
*.ap14_1.eth[*].mac.address = "e8:94:f6:62:84:16"
*.ap14_1.meshId= 15
*.ap14_1.wifiOnly = true
*.ap14_1.**.wifiOnly = true
*.ap14_1.mobility.initialX = 6467m
*.ap14_1.mobility.initialY = 5083m


*.ap15.nodenr = "15"
*.ap15.**.nodenr = "15"
*.ap15.mac = "c4:6e:1f:fe:b6:f0"
*.ap15.**.mac = "c4:6e:1f:fe:b6:f0"
*.ap15.wlan0.mac.address = "c4:6e:1f:fe:b6:f0"
*.ap15.numClients = 1
*.ap15.**.numClients = 1
*.ap15.eth[*].mac.address = "c4:6e:1f:fe:b6:f0"
*.ap15.meshId= 16
*.ap15.wifiOnly = false
*.ap15.**.wifiOnly = false
*.ap15.mobility.initialX = 1424m
*.ap15.mobility.initialY = 404m


*.ap15_0.nodenr = "15_0"
*.ap15_0.**.nodenr = "15_0"
*.ap15_0.mac = "00:15:6d:3c:c5:90"
*.ap15_0.**.mac = "00:15:6d:3c:c5:90"
*.ap15_0.wlan0.mac.address = "00:15:6d:3c:c5:90"
*.ap15_0.numClients = 1
*.ap15_0.**.numClients = 1
*.ap15_0.eth[*].mac.address = "00:15:6d:3c:c5:90"
*.ap15_0.meshId= 16
*.ap15_0.wifiOnly = false
*.ap15_0.**.wifiOnly = false
*.ap15_0.mobility.initialX = 1429m
*.ap15_0.mobility.initialY = 409m


*.ap16.nodenr = "16"
*.ap16.**.nodenr = "16"
*.ap16.mac = "c0:4a:00:f1:51:e8"
*.ap16.**.mac = "c0:4a:00:f1:51:e8"
*.ap16.wlan0.mac.address = "c0:4a:00:f1:51:e8"
*.ap16.numClients = 1
*.ap16.**.numClients = 1
*.ap16.eth[*].mac.address = "c0:4a:00:f1:51:e8"
*.ap16.meshId= 17
*.ap16.wifiOnly = false
*.ap16.**.wifiOnly = false
*.ap16.mobility.initialX = 6455m
*.ap16.mobility.initialY = 6034m


*.ap16_1.nodenr = "16_1"
*.ap16_1.**.nodenr = "16_1"
*.ap16_1.mac = "c0:4a:00:f9:91:40"
*.ap16_1.**.mac = "c0:4a:00:f9:91:40"
*.ap16_1.wlan0.mac.address = "c0:4a:00:f9:91:40"
*.ap16_1.numClients = 1
*.ap16_1.**.numClients = 1
*.ap16_1.eth[*].mac.address = "c0:4a:00:f9:91:40"
*.ap16_1.meshId= 17
*.ap16_1.wifiOnly = false
*.ap16_1.**.wifiOnly = false
*.ap16_1.mobility.initialX = 6460m
*.ap16_1.mobility.initialY = 6039m


*.ap17.nodenr = "17"
*.ap17.**.nodenr = "17"
*.ap17.mac = "10:fe:ed:2b:50:aa"
*.ap17.**.mac = "10:fe:ed:2b:50:aa"
*.ap17.wlan0.mac.address = "10:fe:ed:2b:50:aa"
*.ap17.numClients = 1
*.ap17.**.numClients = 1
*.ap17.eth[*].mac.address = "10:fe:ed:2b:50:aa"
*.ap17.meshId= 18
*.ap17.wifiOnly = false
*.ap17.**.wifiOnly = false
*.ap17.mobility.initialX = 287m
*.ap17.mobility.initialY = 3976m


*.ap17_1.nodenr = "17_1"
*.ap17_1.**.nodenr = "17_1"
*.ap17_1.mac = "c0:4a:00:47:02:ea"
*.ap17_1.**.mac = "c0:4a:00:47:02:ea"
*.ap17_1.wlan0.mac.address = "c0:4a:00:47:02:ea"
*.ap17_1.numClients = 1
*.ap17_1.**.numClients = 1
*.ap17_1.eth[*].mac.address = "c0:4a:00:47:02:ea"
*.ap17_1.meshId= 18
*.ap17_1.wifiOnly = false
*.ap17_1.**.wifiOnly = false
*.ap17_1.mobility.initialX = 292m
*.ap17_1.mobility.initialY = 3981m


*.ap18.nodenr = "18"
*.ap18.**.nodenr = "18"
*.ap18.mac = "c0:4a:00:42:2f:3a"
*.ap18.**.mac = "c0:4a:00:42:2f:3a"
*.ap18.wlan0.mac.address = "c0:4a:00:42:2f:3a"
*.ap18.numClients = 1
*.ap18.**.numClients = 1
*.ap18.eth[*].mac.address = "c0:4a:00:42:2f:3a"
*.ap18.meshId= 19
*.ap18.wifiOnly = false
*.ap18.**.wifiOnly = false
*.ap18.mobility.initialX = 2850m
*.ap18.mobility.initialY = 4197m


*.ap19.nodenr = "19"
*.ap19.**.nodenr = "19"
*.ap19.mac = "c0:4a:00:0a:cd:48"
*.ap19.**.mac = "c0:4a:00:0a:cd:48"
*.ap19.wlan0.mac.address = "c0:4a:00:0a:cd:48"
*.ap19.numClients = 1
*.ap19.**.numClients = 1
*.ap19.eth[*].mac.address = "c0:4a:00:0a:cd:48"
*.ap19.meshId= 20
*.ap19.wifiOnly = false
*.ap19.**.wifiOnly = false
*.ap19.mobility.initialX = 9254m
*.ap19.mobility.initialY = 1967m


*.ap20.nodenr = "20"
*.ap20.**.nodenr = "20"
*.ap20.mac = "c0:4a:00:05:6c:b6"
*.ap20.**.mac = "c0:4a:00:05:6c:b6"
*.ap20.wlan0.mac.address = "c0:4a:00:05:6c:b6"
*.ap20.numClients = 1
*.ap20.**.numClients = 1
*.ap20.eth[*].mac.address = "c0:4a:00:05:6c:b6"
*.ap20.meshId= 21
*.ap20.wifiOnly = false
*.ap20.**.wifiOnly = false
*.ap20.mobility.initialX = 7829m
*.ap20.mobility.initialY = 8115m


*.ap20_0.nodenr = "20_0"
*.ap20_0.**.nodenr = "20_0"
*.ap20_0.mac = "c4:6e:1f:ea:c8:60"
*.ap20_0.**.mac = "c4:6e:1f:ea:c8:60"
*.ap20_0.wlan0.mac.address = "c4:6e:1f:ea:c8:60"
*.ap20_0.numClients = 1
*.ap20_0.**.numClients = 1
*.ap20_0.eth[*].mac.address = "c4:6e:1f:ea:c8:60"
*.ap20_0.meshId= 21
*.ap20_0.wifiOnly = true
*.ap20_0.**.wifiOnly = true
*.ap20_0.mobility.initialX = 7834m
*.ap20_0.mobility.initialY = 8120m


*.ap20_1.nodenr = "20_1"
*.ap20_1.**.nodenr = "20_1"
*.ap20_1.mac = "14:cc:20:8a:43:ce"
*.ap20_1.**.mac = "14:cc:20:8a:43:ce"
*.ap20_1.wlan0.mac.address = "14:cc:20:8a:43:ce"
*.ap20_1.numClients = 1
*.ap20_1.**.numClients = 1
*.ap20_1.eth[*].mac.address = "14:cc:20:8a:43:ce"
*.ap20_1.meshId= 21
*.ap20_1.wifiOnly = true
*.ap20_1.**.wifiOnly = true
*.ap20_1.mobility.initialX = 7839m
*.ap20_1.mobility.initialY = 8125m


*.ap20_2.nodenr = "20_2"
*.ap20_2.**.nodenr = "20_2"
*.ap20_2.mac = "14:cc:20:b4:f3:30"
*.ap20_2.**.mac = "14:cc:20:b4:f3:30"
*.ap20_2.wlan0.mac.address = "14:cc:20:b4:f3:30"
*.ap20_2.numClients = 1
*.ap20_2.**.numClients = 1
*.ap20_2.eth[*].mac.address = "14:cc:20:b4:f3:30"
*.ap20_2.meshId= 21
*.ap20_2.wifiOnly = false
*.ap20_2.**.wifiOnly = false
*.ap20_2.mobility.initialX = 7844m
*.ap20_2.mobility.initialY = 8130m


*.ap21.nodenr = "21"
*.ap21.**.nodenr = "21"
*.ap21.mac = "c0:4a:00:0a:cd:52"
*.ap21.**.mac = "c0:4a:00:0a:cd:52"
*.ap21.wlan0.mac.address = "c0:4a:00:0a:cd:52"
*.ap21.numClients = 1
*.ap21.**.numClients = 1
*.ap21.eth[*].mac.address = "c0:4a:00:0a:cd:52"
*.ap21.meshId= 22
*.ap21.wifiOnly = false
*.ap21.**.wifiOnly = false
*.ap21.mobility.initialX = 3014m
*.ap21.mobility.initialY = 5775m


*.ap22.nodenr = "22"
*.ap22.**.nodenr = "22"
*.ap22.mac = "14:cc:20:b2:6e:70"
*.ap22.**.mac = "14:cc:20:b2:6e:70"
*.ap22.wlan0.mac.address = "14:cc:20:b2:6e:70"
*.ap22.numClients = 1
*.ap22.**.numClients = 1
*.ap22.eth[*].mac.address = "14:cc:20:b2:6e:70"
*.ap22.meshId= 23
*.ap22.wifiOnly = false
*.ap22.**.wifiOnly = false
*.ap22.mobility.initialX = 8190m
*.ap22.mobility.initialY = 8772m


*.ap22_0.nodenr = "22_0"
*.ap22_0.**.nodenr = "22_0"
*.ap22_0.mac = "c4:6e:1f:0d:4f:32"
*.ap22_0.**.mac = "c4:6e:1f:0d:4f:32"
*.ap22_0.wlan0.mac.address = "c4:6e:1f:0d:4f:32"
*.ap22_0.numClients = 1
*.ap22_0.**.numClients = 1
*.ap22_0.eth[*].mac.address = "c4:6e:1f:0d:4f:32"
*.ap22_0.meshId= 23
*.ap22_0.wifiOnly = false
*.ap22_0.**.wifiOnly = false
*.ap22_0.mobility.initialX = 8195m
*.ap22_0.mobility.initialY = 8777m


*.ap23.nodenr = "23"
*.ap23.**.nodenr = "23"
*.ap23.mac = "14:cc:20:4b:f9:9c"
*.ap23.**.mac = "14:cc:20:4b:f9:9c"
*.ap23.wlan0.mac.address = "14:cc:20:4b:f9:9c"
*.ap23.numClients = 1
*.ap23.**.numClients = 1
*.ap23.eth[*].mac.address = "14:cc:20:4b:f9:9c"
*.ap23.meshId= 24
*.ap23.wifiOnly = false
*.ap23.**.wifiOnly = false
*.ap23.mobility.initialX = 8420m
*.ap23.mobility.initialY = 6809m


*.ap23_0.nodenr = "23_0"
*.ap23_0.**.nodenr = "23_0"
*.ap23_0.mac = "14:cc:20:a9:1f:58"
*.ap23_0.**.mac = "14:cc:20:a9:1f:58"
*.ap23_0.wlan0.mac.address = "14:cc:20:a9:1f:58"
*.ap23_0.numClients = 1
*.ap23_0.**.numClients = 1
*.ap23_0.eth[*].mac.address = "14:cc:20:a9:1f:58"
*.ap23_0.meshId= 24
*.ap23_0.wifiOnly = false
*.ap23_0.**.wifiOnly = false
*.ap23_0.mobility.initialX = 8425m
*.ap23_0.mobility.initialY = 6814m


*.ap24.nodenr = "24"
*.ap24.**.nodenr = "24"
*.ap24.mac = "e8:94:f6:52:64:8a"
*.ap24.**.mac = "e8:94:f6:52:64:8a"
*.ap24.wlan0.mac.address = "e8:94:f6:52:64:8a"
*.ap24.numClients = 1
*.ap24.**.numClients = 1
*.ap24.eth[*].mac.address = "e8:94:f6:52:64:8a"
*.ap24.meshId= 25
*.ap24.wifiOnly = false
*.ap24.**.wifiOnly = false
*.ap24.mobility.initialX = 6332m
*.ap24.mobility.initialY = 227m


*.ap25.nodenr = "25"
*.ap25.**.nodenr = "25"
*.ap25.mac = "f8:1a:67:5a:6b:0e"
*.ap25.**.mac = "f8:1a:67:5a:6b:0e"
*.ap25.wlan0.mac.address = "f8:1a:67:5a:6b:0e"
*.ap25.numClients = 1
*.ap25.**.numClients = 1
*.ap25.eth[*].mac.address = "f8:1a:67:5a:6b:0e"
*.ap25.meshId= 26
*.ap25.wifiOnly = false
*.ap25.**.wifiOnly = false
*.ap25.mobility.initialX = 1747m
*.ap25.mobility.initialY = 3900m


*.ap25_1.nodenr = "25_1"
*.ap25_1.**.nodenr = "25_1"
*.ap25_1.mac = "e8:94:f6:90:85:a2"
*.ap25_1.**.mac = "e8:94:f6:90:85:a2"
*.ap25_1.wlan0.mac.address = "e8:94:f6:90:85:a2"
*.ap25_1.numClients = 1
*.ap25_1.**.numClients = 1
*.ap25_1.eth[*].mac.address = "e8:94:f6:90:85:a2"
*.ap25_1.meshId= 26
*.ap25_1.wifiOnly = false
*.ap25_1.**.wifiOnly = false
*.ap25_1.mobility.initialX = 1752m
*.ap25_1.mobility.initialY = 3905m


*.ap26.nodenr = "26"
*.ap26.**.nodenr = "26"
*.ap26.mac = "68:72:51:10:ac:7b"
*.ap26.**.mac = "68:72:51:10:ac:7b"
*.ap26.wlan0.mac.address = "68:72:51:10:ac:7b"
*.ap26.numClients = 1
*.ap26.**.numClients = 1
*.ap26.eth[*].mac.address = "68:72:51:10:ac:7b"
*.ap26.meshId= 27
*.ap26.wifiOnly = false
*.ap26.**.wifiOnly = false
*.ap26.mobility.initialX = 290m
*.ap26.mobility.initialY = 8543m


*.ap26_0.nodenr = "26_0"
*.ap26_0.**.nodenr = "26_0"
*.ap26_0.mac = "c4:6e:1f:0d:2d:44"
*.ap26_0.**.mac = "c4:6e:1f:0d:2d:44"
*.ap26_0.wlan0.mac.address = "c4:6e:1f:0d:2d:44"
*.ap26_0.numClients = 1
*.ap26_0.**.numClients = 1
*.ap26_0.eth[*].mac.address = "c4:6e:1f:0d:2d:44"
*.ap26_0.meshId= 27
*.ap26_0.wifiOnly = false
*.ap26_0.**.wifiOnly = false
*.ap26_0.mobility.initialX = 295m
*.ap26_0.mobility.initialY = 8548m


*.ap27.nodenr = "27"
*.ap27.**.nodenr = "27"
*.ap27.mac = "14:cc:20:c0:3a:7c"
*.ap27.**.mac = "14:cc:20:c0:3a:7c"
*.ap27.wlan0.mac.address = "14:cc:20:c0:3a:7c"
*.ap27.numClients = 1
*.ap27.**.numClients = 1
*.ap27.eth[*].mac.address = "14:cc:20:c0:3a:7c"
*.ap27.meshId= 28
*.ap27.wifiOnly = false
*.ap27.**.wifiOnly = false
*.ap27.mobility.initialX = 5353m
*.ap27.mobility.initialY = 4444m


*.ap28.nodenr = "28"
*.ap28.**.nodenr = "28"
*.ap28.mac = "c0:4a:00:0b:1c:7a"
*.ap28.**.mac = "c0:4a:00:0b:1c:7a"
*.ap28.wlan0.mac.address = "c0:4a:00:0b:1c:7a"
*.ap28.numClients = 1
*.ap28.**.numClients = 1
*.ap28.eth[*].mac.address = "c0:4a:00:0b:1c:7a"
*.ap28.meshId= 29
*.ap28.wifiOnly = false
*.ap28.**.wifiOnly = false
*.ap28.mobility.initialX = 2025m
*.ap28.mobility.initialY = 7424m


*.ap30.nodenr = "30"
*.ap30.**.nodenr = "30"
*.ap30.mac = "c4:6e:1f:bc:fd:36"
*.ap30.**.mac = "c4:6e:1f:bc:fd:36"
*.ap30.wlan0.mac.address = "c4:6e:1f:bc:fd:36"
*.ap30.numClients = 1
*.ap30.**.numClients = 1
*.ap30.eth[*].mac.address = "c4:6e:1f:bc:fd:36"
*.ap30.meshId= 30
*.ap30.wifiOnly = false
*.ap30.**.wifiOnly = false
*.ap30.mobility.initialX = 1993m
*.ap30.mobility.initialY = 1810m


*.ap31.nodenr = "31"
*.ap31.**.nodenr = "31"
*.ap31.mac = "e8:94:f6:ab:1c:80"
*.ap31.**.mac = "e8:94:f6:ab:1c:80"
*.ap31.wlan0.mac.address = "e8:94:f6:ab:1c:80"
*.ap31.numClients = 1
*.ap31.**.numClients = 1
*.ap31.eth[*].mac.address = "e8:94:f6:ab:1c:80"
*.ap31.meshId= 31
*.ap31.wifiOnly = false
*.ap31.**.wifiOnly = false
*.ap31.mobility.initialX = 3265m
*.ap31.mobility.initialY = 3657m


*.ap31_2.nodenr = "31_2"
*.ap31_2.**.nodenr = "31_2"
*.ap31_2.mac = "e8:94:f6:6c:f3:c2"
*.ap31_2.**.mac = "e8:94:f6:6c:f3:c2"
*.ap31_2.wlan0.mac.address = "e8:94:f6:6c:f3:c2"
*.ap31_2.numClients = 1
*.ap31_2.**.numClients = 1
*.ap31_2.eth[*].mac.address = "e8:94:f6:6c:f3:c2"
*.ap31_2.meshId= 31
*.ap31_2.wifiOnly = false
*.ap31_2.**.wifiOnly = false
*.ap31_2.mobility.initialX = 3270m
*.ap31_2.mobility.initialY = 3662m


*.ap32.nodenr = "32"
*.ap32.**.nodenr = "32"
*.ap32.mac = "e8:94:f6:41:0e:4c"
*.ap32.**.mac = "e8:94:f6:41:0e:4c"
*.ap32.wlan0.mac.address = "e8:94:f6:41:0e:4c"
*.ap32.numClients = 1
*.ap32.**.numClients = 1
*.ap32.eth[*].mac.address = "e8:94:f6:41:0e:4c"
*.ap32.meshId= 32
*.ap32.wifiOnly = false
*.ap32.**.wifiOnly = false
*.ap32.mobility.initialX = 1551m
*.ap32.mobility.initialY = 2263m


*.ap32_2.nodenr = "32_2"
*.ap32_2.**.nodenr = "32_2"
*.ap32_2.mac = "c0:4a:00:53:83:3e"
*.ap32_2.**.mac = "c0:4a:00:53:83:3e"
*.ap32_2.wlan0.mac.address = "c0:4a:00:53:83:3e"
*.ap32_2.numClients = 1
*.ap32_2.**.numClients = 1
*.ap32_2.eth[*].mac.address = "c0:4a:00:53:83:3e"
*.ap32_2.meshId= 32
*.ap32_2.wifiOnly = true
*.ap32_2.**.wifiOnly = true
*.ap32_2.mobility.initialX = 1556m
*.ap32_2.mobility.initialY = 2268m


*.ap34.nodenr = "34"
*.ap34.**.nodenr = "34"
*.ap34.mac = "e8:94:f6:b5:c5:ce"
*.ap34.**.mac = "e8:94:f6:b5:c5:ce"
*.ap34.wlan0.mac.address = "e8:94:f6:b5:c5:ce"
*.ap34.numClients = 1
*.ap34.**.numClients = 1
*.ap34.eth[*].mac.address = "e8:94:f6:b5:c5:ce"
*.ap34.meshId= 33
*.ap34.wifiOnly = false
*.ap34.**.wifiOnly = false
*.ap34.mobility.initialX = 8973m
*.ap34.mobility.initialY = 3261m


*.ap34_0.nodenr = "34_0"
*.ap34_0.**.nodenr = "34_0"
*.ap34_0.mac = "e8:94:f6:52:6c:8c"
*.ap34_0.**.mac = "e8:94:f6:52:6c:8c"
*.ap34_0.wlan0.mac.address = "e8:94:f6:52:6c:8c"
*.ap34_0.numClients = 1
*.ap34_0.**.numClients = 1
*.ap34_0.eth[*].mac.address = "e8:94:f6:52:6c:8c"
*.ap34_0.meshId= 33
*.ap34_0.wifiOnly = true
*.ap34_0.**.wifiOnly = true
*.ap34_0.mobility.initialX = 8978m
*.ap34_0.mobility.initialY = 3266m


*.ap35.nodenr = "35"
*.ap35.**.nodenr = "35"
*.ap35.mac = "e8:94:f6:6d:3b:54"
*.ap35.**.mac = "e8:94:f6:6d:3b:54"
*.ap35.wlan0.mac.address = "e8:94:f6:6d:3b:54"
*.ap35.numClients = 1
*.ap35.**.numClients = 1
*.ap35.eth[*].mac.address = "e8:94:f6:6d:3b:54"
*.ap35.meshId= 34
*.ap35.wifiOnly = false
*.ap35.**.wifiOnly = false
*.ap35.mobility.initialX = 9599m
*.ap35.mobility.initialY = 1610m


*.ap36.nodenr = "36"
*.ap36.**.nodenr = "36"
*.ap36.mac = "14:cc:20:5a:72:a4"
*.ap36.**.mac = "14:cc:20:5a:72:a4"
*.ap36.wlan0.mac.address = "14:cc:20:5a:72:a4"
*.ap36.numClients = 1
*.ap36.**.numClients = 1
*.ap36.eth[*].mac.address = "14:cc:20:5a:72:a4"
*.ap36.meshId= 35
*.ap36.wifiOnly = false
*.ap36.**.wifiOnly = false
*.ap36.mobility.initialX = 8836m
*.ap36.mobility.initialY = 9262m


*.ap36_0.nodenr = "36_0"
*.ap36_0.**.nodenr = "36_0"
*.ap36_0.mac = "30:b5:c2:56:67:9d"
*.ap36_0.**.mac = "30:b5:c2:56:67:9d"
*.ap36_0.wlan0.mac.address = "30:b5:c2:56:67:9d"
*.ap36_0.numClients = 1
*.ap36_0.**.numClients = 1
*.ap36_0.eth[*].mac.address = "30:b5:c2:56:67:9d"
*.ap36_0.meshId= 35
*.ap36_0.wifiOnly = false
*.ap36_0.**.wifiOnly = false
*.ap36_0.mobility.initialX = 8841m
*.ap36_0.mobility.initialY = 9267m


*.ap36_1.nodenr = "36_1"
*.ap36_1.**.nodenr = "36_1"
*.ap36_1.mac = "c4:6e:1f:c9:df:20"
*.ap36_1.**.mac = "c4:6e:1f:c9:df:20"
*.ap36_1.wlan0.mac.address = "c4:6e:1f:c9:df:20"
*.ap36_1.numClients = 1
*.ap36_1.**.numClients = 1
*.ap36_1.eth[*].mac.address = "c4:6e:1f:c9:df:20"
*.ap36_1.meshId= 35
*.ap36_1.wifiOnly = false
*.ap36_1.**.wifiOnly = false
*.ap36_1.mobility.initialX = 8846m
*.ap36_1.mobility.initialY = 9272m


*.ap37.nodenr = "37"
*.ap37.**.nodenr = "37"
*.ap37.mac = "e8:94:f6:50:53:82"
*.ap37.**.mac = "e8:94:f6:50:53:82"
*.ap37.wlan0.mac.address = "e8:94:f6:50:53:82"
*.ap37.numClients = 1
*.ap37.**.numClients = 1
*.ap37.eth[*].mac.address = "e8:94:f6:50:53:82"
*.ap37.meshId= 36
*.ap37.wifiOnly = false
*.ap37.**.wifiOnly = false
*.ap37.mobility.initialX = 221m
*.ap37.mobility.initialY = 8584m


*.ap37_2.nodenr = "37_2"
*.ap37_2.**.nodenr = "37_2"
*.ap37_2.mac = "14:cc:20:5a:71:10"
*.ap37_2.**.mac = "14:cc:20:5a:71:10"
*.ap37_2.wlan0.mac.address = "14:cc:20:5a:71:10"
*.ap37_2.numClients = 1
*.ap37_2.**.numClients = 1
*.ap37_2.eth[*].mac.address = "14:cc:20:5a:71:10"
*.ap37_2.meshId= 36
*.ap37_2.wifiOnly = false
*.ap37_2.**.wifiOnly = false
*.ap37_2.mobility.initialX = 226m
*.ap37_2.mobility.initialY = 8589m


*.ap38.nodenr = "38"
*.ap38.**.nodenr = "38"
*.ap38.mac = "e8:94:f6:6a:4f:54"
*.ap38.**.mac = "e8:94:f6:6a:4f:54"
*.ap38.wlan0.mac.address = "e8:94:f6:6a:4f:54"
*.ap38.numClients = 1
*.ap38.**.numClients = 1
*.ap38.eth[*].mac.address = "e8:94:f6:6a:4f:54"
*.ap38.meshId= 37
*.ap38.wifiOnly = false
*.ap38.**.wifiOnly = false
*.ap38.mobility.initialX = 2950m
*.ap38.mobility.initialY = 6797m


*.ap38_0.nodenr = "38_0"
*.ap38_0.**.nodenr = "38_0"
*.ap38_0.mac = "e8:94:f6:62:82:c2"
*.ap38_0.**.mac = "e8:94:f6:62:82:c2"
*.ap38_0.wlan0.mac.address = "e8:94:f6:62:82:c2"
*.ap38_0.numClients = 1
*.ap38_0.**.numClients = 1
*.ap38_0.eth[*].mac.address = "e8:94:f6:62:82:c2"
*.ap38_0.meshId= 37
*.ap38_0.wifiOnly = true
*.ap38_0.**.wifiOnly = true